
  OWA STORM WATER MANAGEMENT MODEL - VERSION v5.1.15 (OWA 2023-02-24)
  --------------------------------------------------------------


  Analysis begun on:  Sat Apr  8 17:29:35 2023
  Analysis ended on:  Sat Apr  8 17:29:35 2023
  Total elapsed time: < 1 sec