
  OWA STORM WATER MANAGEMENT MODEL - VERSION v5.1.15 (OWA 2023-02-24)
  --------------------------------------------------------------

  
  *********************************************************
  NOTE: The summary statistics displayed in this report are
  based on results found at every computational time step,  
  not just on results from each reporting time step.
  *********************************************************
  
  ****************
  Analysis Options
  ****************
  Flow Units ............... CMS
  Process Models:
    Rainfall/Runoff ........ YES
    RDII ................... NO
    Snowmelt ............... NO
    Groundwater ............ NO
    Flow Routing ........... NO
    Water Quality .......... NO
  Infiltration Method ...... HORTON
  Surcharge Method ......... EXTRAN
  Starting Date ............ 06/28/2022 00:00:00
  Ending Date .............. 06/28/2022 06:00:00
  Antecedent Dry Days ...... 0.0
  Report Time Step ......... 00:15:00
  Wet Time Step ............ 00:05:00
  Dry Time Step ............ 01:00:00
  
  
  **************************        Volume         Depth
  Runoff Quantity Continuity     hectare-m            mm
  **************************     ---------       -------
  Initial LID Storage ......         0.893         4.024
  Total Precipitation ......        38.790       174.881
  Evaporation Loss .........         0.000         0.000
  Infiltration Loss ........        26.757       120.632
  Surface Runoff ...........         3.806        17.160
  Final Storage ............         8.988        40.520
  Continuity Error (%) .....         0.331
  
  
  **************************        Volume        Volume
  Flow Routing Continuity        hectare-m      10^6 ltr
  **************************     ---------     ---------
  Dry Weather Inflow .......         0.000         0.000
  Wet Weather Inflow .......         3.786        37.859
  Groundwater Inflow .......         0.000         0.000
  RDII Inflow ..............         0.000         0.000
  External Inflow ..........         0.000         0.000
  External Outflow .........         3.786        37.859
  Flooding Loss ............         0.000         0.000
  Evaporation Loss .........         0.000         0.000
  Exfiltration Loss ........         0.000         0.000
  Initial Stored Volume ....         0.000         0.000
  Final Stored Volume ......         0.000         0.000
  Continuity Error (%) .....         0.000
  
  
  ***************************
  Subcatchment Runoff Summary
  ***************************
  
  ------------------------------------------------------------------------------------------------------------------------------
                            Total      Total      Total      Total     Imperv       Perv      Total       Total     Peak  Runoff
                           Precip      Runon       Evap      Infil     Runoff     Runoff     Runoff      Runoff   Runoff   Coeff
  Subcatchment                 mm         mm         mm         mm         mm         mm         mm    10^6 ltr      CMS
  ------------------------------------------------------------------------------------------------------------------------------
  SJW-1                    174.88      20.35       0.00     133.98      19.51      35.99      55.50        9.38     1.35   0.284
  SJW-2                    174.88       0.00       0.00      86.60      17.48      62.34      79.82        3.46     0.56   0.456
  SJW-4                    174.88       0.00       0.00     141.88      17.48      15.62      33.11        0.96     0.27   0.189
  SJW-5                    174.88     102.95       0.00     172.79      27.78      77.43     105.21        1.24     0.23   0.379
  SJW-7                    174.88      36.44       0.00     186.81      21.13       3.45      24.58        0.14     0.04   0.116
  SJW-8                    174.88       0.00       0.00     128.40      17.48      29.09      46.58        0.90     0.19   0.266
  S-9                      174.88     253.10       0.00      43.47      77.02     289.48     366.51       13.52     1.59   0.856
  S-10                     174.88      37.93       0.00     130.79      38.26      43.47      81.74        2.07     0.35   0.384
  S-11                     174.88     172.75       0.00     119.54      62.55     155.94     218.49        5.90     0.83   0.629
  S-12                     174.88       0.00       0.00     116.98      26.22      31.76      57.97        1.37     0.29   0.332
  S-13                     174.88       0.00       0.00     116.60      26.22      32.14      58.36        1.77     0.39   0.334
  S-14                     174.88       0.00       0.00     113.62      26.21      32.38      58.59        2.05     0.41   0.335
  S-15                     174.88     434.22       0.00     171.54      91.32     315.75     407.07        2.73     0.36   0.668
  S-16                     174.88     496.55       0.00       0.00       0.00       0.00       0.00        0.00     0.00   0.000
  S-17                     174.88       0.00       0.00     118.11      26.22      30.64      56.86        0.87     0.19   0.325
  S-18                     174.88       0.00       0.00     127.18      26.21      21.54      47.75        1.51     0.35   0.273
  S-19                     174.88     140.97       0.00     117.73      56.82     126.55     183.38       17.46     1.94   0.581
  S-20                     174.88     633.04       0.00       0.00       0.00       0.00     191.32        0.59     0.16   0.237
  S-21                     174.88     281.51       0.00       0.00       0.00       0.00       0.00        0.00     0.00   0.000
  S-22                     174.88     680.35       0.00      45.42     682.64     122.26     804.90       11.99     1.47   0.941
  S-23                     174.88     678.17       0.00       0.00       0.00       0.00     493.44        1.97     0.38   0.578
  S-24                     174.88    2759.41       0.00       0.00       0.00       0.00    2401.94        4.80     0.66   0.819
  S-26                     174.88     144.06       0.00       0.00       0.00       0.00       0.00        0.00     0.00   0.000
  S-27                     174.88     324.97       0.00      30.90     399.23      68.18     467.41        5.14     0.67   0.935
  S-28                     174.88    1614.05       0.00       0.00       0.00       0.00      60.20        0.20     0.13   0.034
  S-29                     174.88     953.45       0.00      43.66     899.84     175.36    1075.20       38.06     3.76   0.953
  S-30                     174.88    1692.16       0.00      31.28    1492.77     338.42    1831.19        6.59     0.74   0.981
  S-31                     174.88    1259.27       0.00       0.00       0.00       0.00       0.00        0.00     0.00   0.000
  S-32                     174.88     563.14       0.00      35.59     589.19     108.98     698.18        8.80     0.85   0.946
  S-33                     174.88    2505.47       0.00      36.59    2143.06     493.79    2636.84       14.50     1.68   0.984
  S-34                     174.88    3220.15       0.00       0.00       0.00       0.00    2776.64       15.27     2.02   0.818
  S-35                     174.88    6460.48       0.00      40.09    5307.33    1279.70    6587.03       17.79     2.25   0.993
  S-36                     174.88    1760.90       0.00      59.68    1354.72     514.82    1869.55       19.07     2.30   0.966
  S-41                     174.88     121.44       0.00     165.77      41.47      83.96     125.43        1.97     0.25   0.423
  S-42                     174.88      23.31       0.00     155.12      27.72      15.40      43.12        0.66     0.15   0.218
  S-43                     174.88      65.11       0.00     123.89      35.99      77.48     113.47        1.35     0.24   0.473
  S-44                     174.88       0.00       0.00     141.47      27.93       5.46      33.40        0.64     0.19   0.191
  S-45                     174.88       0.00       0.00       1.34       0.00       0.00       0.00        0.00     0.00   0.000
  S-46                     174.88      50.47       0.00     164.52      40.48      20.31      60.80        1.89     0.37   0.270
  S-47                     174.88      82.50       0.00     156.07      41.11      51.12      92.23        2.28     0.27   0.358
  S-48                     174.88       0.00       0.00      29.76       6.49       8.11      14.60        0.15     0.07   0.083
  S-49                     174.88       0.00       0.00      96.09      26.19      41.81      68.00        1.50     0.26   0.389
  S-50                     174.88     198.97       0.00     124.98      56.06     173.84     229.89        1.72     0.21   0.615
  S-51                     174.88      17.74       0.00     117.93      28.88      44.85      73.73        0.60     0.11   0.383
  S-52                     174.88       0.00       0.00     141.12      26.21       7.61      33.83        0.35     0.11   0.193
  S-53                     174.88     316.35       0.00     142.15      68.77     272.37     341.14        1.77     0.28   0.694
  S-54                     174.88     229.26       0.00     138.03      56.57     202.19     258.77        1.81     0.25   0.640
  S-55                     174.88       0.00       0.00     140.60      26.22       8.12      34.34        0.37     0.11   0.196
  S-56                     174.88      95.39       0.00     162.59      40.52      66.21     106.72        2.87     0.37   0.395
  S-61                     174.88       0.00       0.00     132.59      31.45      10.89      42.34        1.38     0.40   0.242
  S-62                     174.88       0.00       0.00     127.39      31.48      16.24      47.72        0.41     0.14   0.273
  S-63                     174.88       0.00       0.00     114.40      31.45      29.09      60.55        1.33     0.31   0.346
  S-64                     174.88       0.00       0.00     129.05      31.44      14.42      45.86        1.06     0.28   0.262
  S-65                     174.88       0.00       0.00       1.34       0.00       0.00       0.00        0.00     0.00   0.000
  S-66                     174.88     414.08       0.00      71.53      78.51     356.98     435.49        5.01     0.66   0.739
  S-67                     174.88       0.00       0.00     128.11      26.22      20.65      46.88        0.33     0.09   0.268
  S-68                     174.88     187.01       0.00     152.60      57.89     146.38     204.26        1.47     0.22   0.564
  S-70                     174.88       0.00       0.00     130.47      27.95      16.49      44.44        1.43     0.36   0.254
  S-71                     174.88      69.33       0.00     112.51      36.58      77.99     114.57        5.56     0.66   0.469
  SJW-72                   174.88       0.00       0.00     147.79      17.47       9.65      27.12        3.38     0.87   0.155
  SJW-73                   174.88       0.00       0.00     122.72      17.47      26.81      44.28        1.92     0.32   0.253
  SJW-74                   174.88       0.00       0.00     150.04      17.48       7.42      24.90        0.36     0.10   0.142
  SJW-75                   174.88       0.00       0.00     138.32      17.48      19.18      36.66        1.50     0.36   0.210
  SJW-76                   174.88       0.00       0.00     143.55      17.48      13.90      31.37        0.78     0.18   0.179
  SJW-77                   174.88      53.11       0.00     171.42      22.78      33.82      56.60        2.04     0.28   0.248
  SJW-78                   174.88      36.80       0.00     172.99      21.15      17.57      38.71        1.58     0.28   0.183
  SJW-79                   174.88       0.00       0.00     141.18      17.48      16.29      33.77        1.92     0.43   0.193
  SJW-80                   174.88       0.00       0.00     133.25      17.48      24.20      41.67        1.65     0.31   0.238
  SJW-81                   174.88       0.00       0.00     122.72      17.48      33.62      51.10        1.65     0.30   0.292
  SJW-82                   174.88      48.12       0.00     175.84      22.29      24.92      47.21        1.61     0.25   0.212
  SJW-83                   174.88       0.00       0.00     138.01      17.49      19.49      36.98        1.21     0.29   0.211
  SJW-84                   174.88      32.06       0.00     166.22      20.67      20.08      40.75        1.54     0.27   0.197
  SJW-85                   174.88      20.28       0.00     120.42      19.51      48.06      67.57        4.25     0.57   0.346
  SJW-86                   174.88       0.00       0.00     119.26      17.47      31.84      49.31        1.04     0.17   0.282
  SJW-87                   174.88       0.00       0.00     139.59      17.48      17.89      35.37        1.28     0.30   0.202
  SJW-88                   174.88      21.93       0.00     135.27      19.67      40.63      60.30        5.24     0.79   0.306
  SJW-89                   174.88       0.00       0.00     132.17      17.48      25.29      42.77        1.91     0.37   0.245
  SJW-90                   174.88     100.65       0.00     155.35      27.54      80.00     107.54        6.52     0.77   0.390
  SJW-91                   174.88       0.00       0.00     127.23      17.49      30.30      47.79        0.87     0.21   0.273
  SJW-93                   174.88       0.00       0.00     134.15      17.49      23.37      40.85        0.21     0.05   0.234
  SJW-92                   174.88       0.00       0.00     134.14      17.49      23.38      40.86        0.18     0.04   0.234
  S-92                     174.88      99.54       0.00     117.26      41.14     103.08     144.22        6.13     0.71   0.526
  S-93                     174.88     289.61       0.00     118.23      74.28     244.99     319.28        7.15     0.78   0.687
  

  ***********************
  LID Performance Summary
  ***********************

  --------------------------------------------------------------------------------------------------------------------
                                         Total      Evap     Infil   Surface    Drain    Initial     Final  Continuity
                                        Inflow      Loss      Loss   Outflow   Outflow   Storage   Storage       Error
  Subcatchment      LID Control             mm        mm        mm        mm        mm        mm        mm           %
  --------------------------------------------------------------------------------------------------------------------
  S-16              C6                  671.43      0.00      0.00      0.00      0.00     79.50    746.19        0.63
  S-20              C4                  807.92      0.00      0.00    191.32      0.00     79.50    695.86        0.03
  S-21              C3                  456.39      0.00      0.00      0.00      0.00     79.50    531.11        0.89
  S-23              C1                  853.05      0.00      0.00    493.44      0.00     79.50    438.92        0.02
  S-24              C3                 2934.29      0.00      0.00   2401.94      0.00     79.50    611.64        0.01
  S-26              C3                  318.94      0.00      0.00      0.00      0.00     79.50    396.19        0.56
  S-28              C6                 1788.93      0.00      0.00     60.20      0.00     79.50   1807.84        0.02
  S-31              C6                 1434.15      0.00      0.00      0.00      0.00     79.50   1503.30        0.68
  S-34              C4                 3395.03      0.00      0.00   2776.64      0.00     79.50    697.67        0.01
  S-45              A2                  174.88      0.00      1.34      0.00      0.00     34.80    207.07        0.60
  S-48              A3                  174.88      0.00      1.34      0.00      0.00     34.80    207.07        0.60
  S-65              A2                  174.88      0.00      1.34      0.00      0.00     34.80    207.07        0.60
  S-66              B3                  174.88      0.00      1.30      0.00      0.00     34.80    207.11        0.60

  Analysis begun on:  Sun Apr  9 15:41:26 2023
  Analysis ended on:  Sun Apr  9 15:41:26 2023
  Total elapsed time: < 1 sec